<?xml version="1.0" encoding="UTF-8"?>

<!-- generated on 2025-05-21 10:27:36.538828 by randomTrips.py v1_20_0+0000-96efa4d36d6
<configuration>
    <net-file value="sumo/cross.net.xml"/>
    <route-file value="sumo/cross.rou.xml"/>
    <end value="200.0"/>
</configuration>
-->

<!-- generated on 2025-05-21 10:27:36 by Eclipse SUMO duarouter Version 1.20.0
<configuration xmlns:xsi="http://www.w3.org/2001/XMLSchema-instance" xsi:noNamespaceSchemaLocation="http://sumo.dlr.de/xsd/duarouterConfiguration.xsd">

    <input>
        <net-file value="sumo/cross.net.xml"/>
        <route-files value="trips.trips.xml"/>
    </input>

    <output>
        <output-file value="sumo/cross.rou.xml"/>
        <alternatives-output value="NUL"/>
    </output>

    <time>
        <begin value="0"/>
        <end value="200.0"/>
    </time>

    <report>
        <no-warnings value="true"/>
        <ignore-errors value="true"/>
        <no-step-log value="true"/>
    </report>

</configuration>
-->

<routes xmlns:xsi="http://www.w3.org/2001/XMLSchema-instance" xsi:noNamespaceSchemaLocation="http://sumo.dlr.de/xsd/routes_file.xsd">
    <vehicle id="1" depart="1.00">
        <route edges="A1A0 A0B0"/>
    </vehicle>
    <vehicle id="2" depart="2.00">
        <route edges="B0B1"/>
    </vehicle>
    <vehicle id="3" depart="3.00">
        <route edges="B1B0 B0A0 A0A1"/>
    </vehicle>
    <vehicle id="4" depart="4.00">
        <route edges="A1B1 B1B0 B0A0 A0A1"/>
    </vehicle>
    <vehicle id="10" depart="10.00">
        <route edges="B1A1 A1A0 A0B0 B0B1"/>
    </vehicle>
    <vehicle id="11" depart="11.00">
        <route edges="A1A0 A0B0"/>
    </vehicle>
    <vehicle id="13" depart="13.00">
        <route edges="A0A1"/>
    </vehicle>
    <vehicle id="15" depart="15.00">
        <route edges="B1A1 A1A0 A0B0 B0B1"/>
    </vehicle>
    <vehicle id="16" depart="16.00">
        <route edges="B0A0 A0A1 A1B1 B1B0"/>
    </vehicle>
    <vehicle id="17" depart="17.00">
        <route edges="A1B1 B1B0 B0A0"/>
    </vehicle>
    <vehicle id="21" depart="21.00">
        <route edges="A0B0 B0B1 B1A1 A1A0"/>
    </vehicle>
    <vehicle id="24" depart="24.00">
        <route edges="B0B1 B1A1 A1A0"/>
    </vehicle>
    <vehicle id="25" depart="25.00">
        <route edges="A1A0 A0B0"/>
    </vehicle>
    <vehicle id="28" depart="28.00">
        <route edges="A0B0 B0B1"/>
    </vehicle>
    <vehicle id="32" depart="32.00">
        <route edges="B1A1"/>
    </vehicle>
    <vehicle id="34" depart="34.00">
        <route edges="A1A0"/>
    </vehicle>
    <vehicle id="38" depart="38.00">
        <route edges="B1B0 B0A0 A0A1 A1B1"/>
    </vehicle>
    <vehicle id="39" depart="39.00">
        <route edges="A1A0 A0B0"/>
    </vehicle>
    <vehicle id="41" depart="41.00">
        <route edges="B0A0 A0A1 A1B1 B1B0"/>
    </vehicle>
    <vehicle id="43" depart="43.00">
        <route edges="B1B0 B0A0"/>
    </vehicle>
    <vehicle id="44" depart="44.00">
        <route edges="A0A1"/>
    </vehicle>
    <vehicle id="47" depart="47.00">
        <route edges="A0A1 A1B1"/>
    </vehicle>
    <vehicle id="48" depart="48.00">
        <route edges="B1B0 B0A0"/>
    </vehicle>
    <vehicle id="52" depart="52.00">
        <route edges="A1A0 A0B0 B0B1"/>
    </vehicle>
    <vehicle id="53" depart="53.00">
        <route edges="A0A1 A1B1"/>
    </vehicle>
    <vehicle id="54" depart="54.00">
        <route edges="A1B1 B1B0"/>
    </vehicle>
    <vehicle id="58" depart="58.00">
        <route edges="A1A0 A0B0 B0B1"/>
    </vehicle>
    <vehicle id="63" depart="63.00">
        <route edges="A0A1 A1B1 B1B0"/>
    </vehicle>
    <vehicle id="66" depart="66.00">
        <route edges="B1B0"/>
    </vehicle>
    <vehicle id="67" depart="67.00">
        <route edges="A0A1 A1B1"/>
    </vehicle>
    <vehicle id="69" depart="69.00">
        <route edges="B1A1 A1A0 A0B0"/>
    </vehicle>
    <vehicle id="70" depart="70.00">
        <route edges="A1B1 B1B0 B0A0"/>
    </vehicle>
    <vehicle id="71" depart="71.00">
        <route edges="A1A0 A0B0 B0B1 B1A1"/>
    </vehicle>
    <vehicle id="74" depart="74.00">
        <route edges="A0B0 B0B1 B1A1 A1A0"/>
    </vehicle>
    <vehicle id="76" depart="76.00">
        <route edges="A1B1 B1B0 B0A0"/>
    </vehicle>
    <vehicle id="79" depart="79.00">
        <route edges="A0B0"/>
    </vehicle>
    <vehicle id="83" depart="83.00">
        <route edges="A0B0 B0B1"/>
    </vehicle>
    <vehicle id="84" depart="84.00">
        <route edges="A0B0"/>
    </vehicle>
    <vehicle id="85" depart="85.00">
        <route edges="B1B0 B0A0"/>
    </vehicle>
    <vehicle id="87" depart="87.00">
        <route edges="B1A1 A1A0 A0B0"/>
    </vehicle>
    <vehicle id="88" depart="88.00">
        <route edges="A0A1 A1B1"/>
    </vehicle>
    <vehicle id="89" depart="89.00">
        <route edges="A1B1"/>
    </vehicle>
    <vehicle id="90" depart="90.00">
        <route edges="B0B1"/>
    </vehicle>
    <vehicle id="91" depart="91.00">
        <route edges="B1B0 B0A0 A0A1"/>
    </vehicle>
    <vehicle id="93" depart="93.00">
        <route edges="B1A1 A1A0 A0B0"/>
    </vehicle>
    <vehicle id="98" depart="98.00">
        <route edges="B0A0 A0A1"/>
    </vehicle>
    <vehicle id="100" depart="100.00">
        <route edges="B1B0"/>
    </vehicle>
    <vehicle id="101" depart="101.00">
        <route edges="B1A1 A1A0 A0B0"/>
    </vehicle>
    <vehicle id="103" depart="103.00">
        <route edges="A1B1 B1B0 B0A0 A0A1"/>
    </vehicle>
    <vehicle id="104" depart="104.00">
        <route edges="A1B1 B1B0"/>
    </vehicle>
    <vehicle id="105" depart="105.00">
        <route edges="A1A0 A0B0 B0B1 B1A1"/>
    </vehicle>
    <vehicle id="106" depart="106.00">
        <route edges="A1B1"/>
    </vehicle>
    <vehicle id="107" depart="107.00">
        <route edges="B1B0"/>
    </vehicle>
    <vehicle id="109" depart="109.00">
        <route edges="A0B0 B0B1 B1A1 A1A0"/>
    </vehicle>
    <vehicle id="110" depart="110.00">
        <route edges="B1B0 B0A0"/>
    </vehicle>
    <vehicle id="112" depart="112.00">
        <route edges="A0A1 A1B1 B1B0 B0A0"/>
    </vehicle>
    <vehicle id="119" depart="119.00">
        <route edges="B0A0"/>
    </vehicle>
    <vehicle id="120" depart="120.00">
        <route edges="A1B1 B1B0 B0A0"/>
    </vehicle>
    <vehicle id="121" depart="121.00">
        <route edges="B0A0 A0A1 A1B1 B1B0"/>
    </vehicle>
    <vehicle id="122" depart="122.00">
        <route edges="A0B0 B0B1"/>
    </vehicle>
    <vehicle id="124" depart="124.00">
        <route edges="B0B1 B1A1 A1A0"/>
    </vehicle>
    <vehicle id="125" depart="125.00">
        <route edges="A1A0 A0B0 B0B1 B1A1"/>
    </vehicle>
    <vehicle id="126" depart="126.00">
        <route edges="A0A1 A1B1"/>
    </vehicle>
    <vehicle id="127" depart="127.00">
        <route edges="B1B0"/>
    </vehicle>
    <vehicle id="130" depart="130.00">
        <route edges="B1B0"/>
    </vehicle>
    <vehicle id="131" depart="131.00">
        <route edges="A1A0 A0B0"/>
    </vehicle>
    <vehicle id="132" depart="132.00">
        <route edges="B1A1 A1A0 A0B0 B0B1"/>
    </vehicle>
    <vehicle id="133" depart="133.00">
        <route edges="B0A0 A0A1 A1B1 B1B0"/>
    </vehicle>
    <vehicle id="135" depart="135.00">
        <route edges="B1A1 A1A0"/>
    </vehicle>
    <vehicle id="138" depart="138.00">
        <route edges="A0A1 A1B1 B1B0 B0A0"/>
    </vehicle>
    <vehicle id="140" depart="140.00">
        <route edges="B0B1 B1A1 A1A0 A0B0"/>
    </vehicle>
    <vehicle id="141" depart="141.00">
        <route edges="B0B1 B1A1 A1A0"/>
    </vehicle>
    <vehicle id="142" depart="142.00">
        <route edges="A1B1 B1B0"/>
    </vehicle>
    <vehicle id="146" depart="146.00">
        <route edges="B0B1 B1A1 A1A0"/>
    </vehicle>
    <vehicle id="148" depart="148.00">
        <route edges="A1B1 B1B0 B0A0 A0A1"/>
    </vehicle>
    <vehicle id="149" depart="149.00">
        <route edges="A0A1 A1B1 B1B0"/>
    </vehicle>
    <vehicle id="150" depart="150.00">
        <route edges="B1B0 B0A0"/>
    </vehicle>
    <vehicle id="152" depart="152.00">
        <route edges="A0B0"/>
    </vehicle>
    <vehicle id="154" depart="154.00">
        <route edges="B1A1"/>
    </vehicle>
    <vehicle id="158" depart="158.00">
        <route edges="A1B1 B1B0 B0A0"/>
    </vehicle>
    <vehicle id="164" depart="164.00">
        <route edges="B1A1"/>
    </vehicle>
    <vehicle id="165" depart="165.00">
        <route edges="B1A1 A1A0"/>
    </vehicle>
    <vehicle id="167" depart="167.00">
        <route edges="B1A1"/>
    </vehicle>
    <vehicle id="168" depart="168.00">
        <route edges="A0B0 B0B1 B1A1"/>
    </vehicle>
    <vehicle id="170" depart="170.00">
        <route edges="B1A1 A1A0 A0B0"/>
    </vehicle>
    <vehicle id="172" depart="172.00">
        <route edges="A1A0 A0B0 B0B1 B1A1"/>
    </vehicle>
    <vehicle id="175" depart="175.00">
        <route edges="B1B0 B0A0"/>
    </vehicle>
    <vehicle id="176" depart="176.00">
        <route edges="B1B0 B0A0 A0A1"/>
    </vehicle>
    <vehicle id="179" depart="179.00">
        <route edges="A0A1 A1B1"/>
    </vehicle>
    <vehicle id="180" depart="180.00">
        <route edges="B0B1 B1A1 A1A0"/>
    </vehicle>
    <vehicle id="181" depart="181.00">
        <route edges="B0A0"/>
    </vehicle>
    <vehicle id="182" depart="182.00">
        <route edges="A1B1 B1B0 B0A0"/>
    </vehicle>
    <vehicle id="183" depart="183.00">
        <route edges="A1A0 A0B0 B0B1"/>
    </vehicle>
    <vehicle id="184" depart="184.00">
        <route edges="A0A1 A1B1 B1B0"/>
    </vehicle>
    <vehicle id="186" depart="186.00">
        <route edges="B0B1"/>
    </vehicle>
    <vehicle id="188" depart="188.00">
        <route edges="B0B1 B1A1 A1A0"/>
    </vehicle>
    <vehicle id="189" depart="189.00">
        <route edges="A1A0 A0B0 B0B1 B1A1"/>
    </vehicle>
    <vehicle id="190" depart="190.00">
        <route edges="B0B1 B1A1 A1A0"/>
    </vehicle>
    <vehicle id="195" depart="195.00">
        <route edges="B1B0 B0A0"/>
    </vehicle>
    <vehicle id="198" depart="198.00">
        <route edges="A1B1 B1B0 B0A0"/>
    </vehicle>
</routes>
